Circuit: * C:\HOME_projects\SYNTH_GOOM\2LineartoExponential\ltspice_ntc_tfpt_pts_model\Draft1.asc


Date: Sun Oct 08 18:27:45 2023
Total elapsed time: 0.039 seconds.

tnom = 27
temp = 126
method = trap
totiter = 335
traniter = 0
tranpoints = 0
accept = 0
rejected = 0
matrix size = 7
fillins = 2
solver = Normal
Matrix Compiler1: 322 bytes object code size  0.1/0.0/[0.0]
Matrix Compiler2: 469 bytes object code size  0.1/0.1/[0.0]

