Circuit: * M:\backupDdrive-08012020\VISHAY E-design 5_3\LTspice\test_ltspice_model_imported_orcad\LTspice-19102021-newsmdext\ltspice_ntc_tfpt_pts_model (8)\ltspice_ntc_tfpt_pts_model\simulation_LT_therm_Vishay.asc

.step run=1
.step run=2
.step run=3
.step run=4
.step run=5
.step run=6
.step run=7
.step run=8
.step run=9
.step run=10
.step run=11
.step run=12
.step run=13
.step run=14
.step run=15
.step run=16
.step run=17
.step run=18
.step run=19
.step run=20
.step run=21
.step run=22
.step run=23
.step run=24
.step run=25
.step run=26
.step run=27
.step run=28
.step run=29
.step run=30
.step run=31
.step run=32
.step run=33
.step run=34
.step run=35
.step run=36
.step run=37
.step run=38
.step run=39
.step run=40
.step run=41
.step run=42
.step run=43
.step run=44
.step run=45
.step run=46
.step run=47
.step run=48
.step run=49
.step run=50
.step run=51
.step run=52
.step run=53
.step run=54
.step run=55
.step run=56
.step run=57
.step run=58
.step run=59
.step run=60
.step run=61
.step run=62
.step run=63
.step run=64
.step run=65
.step run=66
.step run=67
.step run=68
.step run=69
.step run=70
.step run=71
.step run=72
.step run=73
.step run=74
.step run=75
.step run=76
.step run=77
.step run=78
.step run=79
.step run=80
.step run=81
.step run=82
.step run=83
.step run=84
.step run=85
.step run=86
.step run=87
.step run=88
.step run=89
.step run=90
.step run=91
.step run=92
.step run=93
.step run=94
.step run=95
.step run=96
.step run=97
.step run=98
.step run=99
.step run=100


Measurement: rt1
  step	-v(tfpt)/i(v1)	at
     1	7146.24	-55
     2	7201.63	-55
     3	6717.9	-55
     4	7054.61	-55
     5	7061.33	-55
     6	6926.95	-55
     7	6908.33	-55
     8	6821.26	-55
     9	7250.29	-55
    10	6870.68	-55
    11	6791.49	-55
    12	7136.81	-55
    13	7033.26	-55
    14	6966.15	-55
    15	6814.58	-55
    16	6964.95	-55
    17	7047.61	-55
    18	6932.84	-55
    19	7178.7	-55
    20	7047.39	-55
    21	7024.39	-55
    22	6890.24	-55
    23	6784.71	-55
    24	6942.69	-55
    25	6969.93	-55
    26	7006.6	-55
    27	6774.12	-55
    28	6868.67	-55
    29	7237.68	-55
    30	7181.48	-55
    31	6702.72	-55
    32	6751.11	-55
    33	6783.32	-55
    34	6857.82	-55
    35	7277.64	-55
    36	7248.17	-55
    37	6925.24	-55
    38	7128.95	-55
    39	6991.19	-55
    40	7158.81	-55
    41	7252.47	-55
    42	6945.04	-55
    43	7141.41	-55
    44	7139.6	-55
    45	7029.64	-55
    46	7204.4	-55
    47	7216.96	-55
    48	7012.71	-55
    49	7322.34	-55
    50	6722.36	-55
    51	7166.1	-55
    52	6861.38	-55
    53	6947.91	-55
    54	7061.4	-55
    55	7029.41	-55
    56	7160	-55
    57	6901.27	-55
    58	6855.9	-55
    59	7122.82	-55
    60	7112.14	-55
    61	6893.4	-55
    62	7083.05	-55
    63	6865.05	-55
    64	6915.9	-55
    65	6853.58	-55
    66	7116.14	-55
    67	6838.93	-55
    68	6979.18	-55
    69	6758.1	-55
    70	7226.16	-55
    71	7214.02	-55
    72	7276.13	-55
    73	7293.81	-55
    74	7192.23	-55
    75	6901.63	-55
    76	7152.15	-55
    77	7072.45	-55
    78	7153.55	-55
    79	6786.81	-55
    80	7107.29	-55
    81	6850.39	-55
    82	7235.61	-55
    83	7086.65	-55
    84	6814.09	-55
    85	7319.56	-55
    86	7049.05	-55
    87	6982.76	-55
    88	6924.91	-55
    89	6894.96	-55
    90	7011.38	-55
    91	7190.59	-55
    92	7274.97	-55
    93	7152.2	-55
    94	7191.38	-55
    95	6965.13	-55
    96	7184.77	-55
    97	7274.03	-55
    98	6985.23	-55
    99	6721.5	-55
   100	6908.06	-55

Measurement: rt2
  step	-v(tfpt)/i(v1)	at
     1	9938.83	25
     2	10064.7	25
     3	9960.97	25
     4	10097.9	25
     5	10006.5	25
     6	9990.33	25
     7	10004.1	25
     8	10008	25
     9	10056.1	25
    10	9953.41	25
    11	10035.6	25
    12	10017.8	25
    13	10048.9	25
    14	10020	25
    15	9930.48	25
    16	10050.5	25
    17	10040.1	25
    18	10038.8	25
    19	9930.82	25
    20	10063.6	25
    21	9956.09	25
    22	9924.77	25
    23	9985.42	25
    24	9994.52	25
    25	10096.8	25
    26	10068.1	25
    27	10014.7	25
    28	10031.7	25
    29	9962.98	25
    30	10067.1	25
    31	9900.49	25
    32	10010.8	25
    33	10008.9	25
    34	9987.51	25
    35	10001	25
    36	9935.84	25
    37	9919.05	25
    38	9945.63	25
    39	9990.49	25
    40	10025.1	25
    41	10011.2	25
    42	10017.1	25
    43	10024.2	25
    44	10082.5	25
    45	9963.17	25
    46	10070.4	25
    47	10028.4	25
    48	9993.28	25
    49	10065.5	25
    50	9925.62	25
    51	9914.62	25
    52	9945.59	25
    53	9998.68	25
    54	10037.8	25
    55	9920.29	25
    56	9976.19	25
    57	9935.49	25
    58	9905.74	25
    59	10073	25
    60	10041.8	25
    61	9968.37	25
    62	10005.5	25
    63	9980.65	25
    64	10014.8	25
    65	10061.8	25
    66	10048.9	25
    67	9946.06	25
    68	10005.1	25
    69	9929.48	25
    70	9967.45	25
    71	10007	25
    72	10005.3	25
    73	10037	25
    74	10020.5	25
    75	9901.02	25
    76	10062.4	25
    77	9928.72	25
    78	10029.1	25
    79	9955.16	25
    80	9973.68	25
    81	10080.6	25
    82	9934.53	25
    83	9900.92	25
    84	9907.89	25
    85	10077.2	25
    86	10082	25
    87	10014.1	25
    88	9951.23	25
    89	9914.23	25
    90	10029	25
    91	9979.48	25
    92	9978.51	25
    93	10025.6	25
    94	10079.2	25
    95	10080.9	25
    96	10049.2	25
    97	10036.3	25
    98	9940.78	25
    99	9916.08	25
   100	9928.7	25

Measurement: rt3
  step	-v(tfpt)/i(v1)	at
     1	12419.8	85
     2	12608.8	85
     3	12848	85
     4	12804.3	85
     5	12624.8	85
     6	12715.3	85
     7	12758.3	85
     8	12844.2	85
     9	12548.6	85
    10	12695.9	85
    11	12923.3	85
    12	12578.1	85
    13	12730.6	85
    14	12736.2	85
    15	12703	85
    16	12795.2	85
    17	12701	85
    18	12801.8	85
    19	12375.3	85
    20	12745.7	85
    21	12562.4	85
    22	12623.9	85
    23	12834.2	85
    24	12709	85
    25	12878.5	85
    26	12791	85
    27	12899.3	85
    28	12846.3	85
    29	12383.2	85
    30	12631.5	85
    31	12746.9	85
    32	12912.7	85
    33	12879.9	85
    34	12772.2	85
    35	12419.3	85
    36	12322.2	85
    37	12581.5	85
    38	12448.3	85
    39	12657.7	85
    40	12572.2	85
    41	12461.4	85
    42	12749.7	85
    43	12586.3	85
    44	12698.4	85
    45	12571.1	85
    46	12617.1	85
    47	12526	85
    48	12643.5	85
    49	12501.4	85
    50	12776.9	85
    51	12355.9	85
    52	12689.5	85
    53	12712.2	85
    54	12684.1	85
    55	12489.9	85
    56	12478.3	85
    57	12634.3	85
    58	12618.8	85
    59	12695.6	85
    60	12645.9	85
    61	12703.8	85
    62	12603.3	85
    63	12752.7	85
    64	12771.7	85
    65	12917	85
    66	12655.9	85
    67	12710.6	85
    68	12696.2	85
    69	12752	85
    70	12402.1	85
    71	12488.1	85
    72	12428.8	85
    73	12473	85
    74	12533.3	85
    75	12568.6	85
    76	12649	85
    77	12467.1	85
    78	12584.5	85
    79	12774.9	85
    80	12521	85
    81	12955.7	85
    82	12331	85
    83	12401.6	85
    84	12660.5	85
    85	12526.2	85
    86	12779.2	85
    87	12710	85
    88	12642.9	85
    89	12599.7	85
    90	12712.6	85
    91	12456.9	85
    92	12379	85
    93	12579.2	85
    94	12645.6	85
    95	12852.8	85
    96	12594.6	85
    97	12489.5	85
    98	12568.7	85
    99	12759.6	85
   100	12615.3	85

Measurement: rt4
  step	-v(tfpt)/i(v1)	at
     1	15461.3	150
     2	15737.1	150
     3	16505.7	150
     4	16177	150
     5	15870.2	150
     6	16124.1	150
     7	16210.5	150
     8	16420.9	150
     9	15598.9	150
    10	16134.3	150
    11	16576.6	150
    12	15734.5	150
    13	16069.4	150
    14	16129.6	150
    15	16188.7	150
    16	16229.6	150
    17	16008.7	150
    18	16265.2	150
    19	15361.9	150
    20	16084.1	150
    21	15793.4	150
    22	15998.4	150
    23	16431.8	150
    24	16101.7	150
    25	16366	150
    26	16191	150
    27	16549.3	150
    28	16388.6	150
    29	15330.5	150
    30	15790.4	150
    31	16347.3	150
    32	16589.3	150
    33	16509.8	150
    34	16272.3	150
    35	15360.9	150
    36	15220	150
    37	15900.6	150
    38	15522.3	150
    39	15978.6	150
    40	15708	150
    41	15450.7	150
    42	16168.4	150
    43	15744.8	150
    44	15934.7	150
    45	15804	150
    46	15748.9	150
    47	15586.2	150
    48	15938.6	150
    49	15465.1	150
    50	16382.8	150
    51	15338.9	150
    52	16130.5	150
    53	16103.1	150
    54	15969.9	150
    55	15667.7	150
    56	15549.2	150
    57	16007.5	150
    58	16015.8	150
    59	15942.7	150
    60	15867.2	150
    61	16130.3	150
    62	15817.6	150
    63	16234	150
    64	16227.4	150
    65	16518.9	150
    66	15881	150
    67	16183	150
    68	16052.5	150
    69	16313.9	150
    70	15370.9	150
    71	15524.7	150
    72	15378	150
    73	15438.9	150
    74	15617.2	150
    75	15896.8	150
    76	15842	150
    77	15596.8	150
    78	15732.6	150
    79	16330.5	150
    80	15661	150
    81	16586.3	150
    82	15244.4	150
    83	15475.8	150
    84	16117.7	150
    85	15508.8	150
    86	16139	150
    87	16073	150
    88	16004	150
    89	15954.1	150
    90	16055.7	150
    91	15490.1	150
    92	15295.2	150
    93	15724.7	150
    94	15806.6	150
    95	16326.4	150
    96	15725.9	150
    97	15481.6	150
    98	15833.6	150
    99	16354.3	150
   100	15970.5	150

Measurement: rn1
  step	-v(ntc)/i(v3)	at
     1	43941.1	-55
     2	43374.9	-55
     3	41427.7	-55
     4	40433.6	-55
     5	44439.3	-55
     6	42044.5	-55
     7	46059.4	-55
     8	42611.2	-55
     9	47566.4	-55
    10	43527.3	-55
    11	42826.7	-55
    12	45888.5	-55
    13	44952.8	-55
    14	45031.6	-55
    15	44312.4	-55
    16	42696.7	-55
    17	43552.6	-55
    18	41933.7	-55
    19	45320.7	-55
    20	42146.4	-55
    21	45299.1	-55
    22	43541.6	-55
    23	47072.2	-55
    24	44531	-55
    25	44908.3	-55
    26	44945.9	-55
    27	42773.9	-55
    28	43864.4	-55
    29	42178.9	-55
    30	44905	-55
    31	46187.1	-55
    32	41807.7	-55
    33	42395.7	-55
    34	44085.1	-55
    35	45941.7	-55
    36	45116.6	-55
    37	43993.9	-55
    38	42284.9	-55
    39	44514.5	-55
    40	43511.7	-55
    41	41527.8	-55
    42	42252.4	-55
    43	43790	-55
    44	43117.2	-55
    45	41748.8	-55
    46	41583.8	-55
    47	43662.8	-55
    48	41562.1	-55
    49	46042	-55
    50	44963.9	-55
    51	43717.2	-55
    52	45645.7	-55
    53	44600.3	-55
    54	43753.1	-55
    55	45193.1	-55
    56	43396.6	-55
    57	42808.8	-55
    58	42139.8	-55
    59	45812.6	-55
    60	41037.1	-55
    61	43585.8	-55
    62	46318.5	-55
    63	43194.2	-55
    64	42947.3	-55
    65	43634.6	-55
    66	44205.7	-55
    67	45456.3	-55
    68	41112.5	-55
    69	44099.8	-55
    70	42975.8	-55
    71	44139.2	-55
    72	42358.6	-55
    73	44652.2	-55
    74	42800.1	-55
    75	42322.1	-55
    76	45500.9	-55
    77	45577.5	-55
    78	41992.5	-55
    79	46155.7	-55
    80	41321.4	-55
    81	45194.7	-55
    82	46112.8	-55
    83	41652	-55
    84	41483	-55
    85	43211.9	-55
    86	46042.7	-55
    87	45710.1	-55
    88	41505.4	-55
    89	42629	-55
    90	44754.2	-55
    91	43051.5	-55
    92	43545.8	-55
    93	41002.2	-55
    94	45989	-55
    95	43379.3	-55
    96	43481.2	-55
    97	43117.7	-55
    98	44107.4	-55
    99	41123.9	-55
   100	42309	-55

Measurement: rn2
  step	-v(ntc)/i(v3)	at
     1	1008.6	25
     2	967.508	25
     3	959.234	25
     4	962.001	25
     5	1010.28	25
     6	955.798	25
     7	1037.71	25
     8	996.308	25
     9	1049.79	25
    10	1034.12	25
    11	950.973	25
    12	1033.87	25
    13	995.899	25
    14	1023.61	25
    15	992.617	25
    16	966.994	25
    17	964.846	25
    18	992.754	25
    19	1032.28	25
    20	965.651	25
    21	1018.33	25
    22	1033.57	25
    23	1045.05	25
    24	1034.81	25
    25	1024.03	25
    26	1000.19	25
    27	1003.23	25
    28	1034.32	25
    29	978.705	25
    30	1010.13	25
    31	1030.73	25
    32	961.472	25
    33	993.771	25
    34	1007.89	25
    35	1019.68	25
    36	995.847	25
    37	1043.26	25
    38	991.17	25
    39	1009.89	25
    40	1006.68	25
    41	974.382	25
    42	999.546	25
    43	1030.56	25
    44	1022.87	25
    45	980.679	25
    46	965.583	25
    47	1004.61	25
    48	965.36	25
    49	1037.44	25
    50	1028.6	25
    51	1015.49	25
    52	1042.11	25
    53	999.784	25
    54	1010.73	25
    55	1036.43	25
    56	1005.38	25
    57	963.258	25
    58	955.685	25
    59	1022.27	25
    60	971.851	25
    61	986.856	25
    62	1029.93	25
    63	963.75	25
    64	1004.91	25
    65	978.524	25
    66	986.213	25
    67	1004.34	25
    68	959.56	25
    69	1043.27	25
    70	989.96	25
    71	1019.46	25
    72	989.968	25
    73	993.652	25
    74	1007.77	25
    75	958.319	25
    76	1019.26	25
    77	1022.9	25
    78	958.639	25
    79	1048.29	25
    80	971.958	25
    81	1040.37	25
    82	1027.7	25
    83	961.499	25
    84	969.022	25
    85	969.662	25
    86	1042.24	25
    87	1044.41	25
    88	985.123	25
    89	1009.18	25
    90	1010.53	25
    91	1009.32	25
    92	968.628	25
    93	955.055	25
    94	1022.95	25
    95	988.91	25
    96	1024.05	25
    97	986.883	25
    98	1015.59	25
    99	952.873	25
   100	956.879	25

Measurement: rn3
  step	-v(ntc)/i(v3)	at
     1	170.012	85
     2	160.898	85
     3	162.357	85
     4	164.926	85
     5	169.524	85
     6	160.38	85
     7	173.386	85
     8	169.409	85
     9	173.707	85
    10	177.168	85
    11	157.811	85
    12	172.746	85
    13	165.087	85
    14	171.749	85
    15	165.403	85
    16	161.972	85
    17	159.938	85
    18	169.8	85
    19	173.37	85
    20	162.633	85
    21	169.972	85
    22	177.003	85
    23	173.405	85
    24	175.444	85
    25	172.075	85
    26	166.148	85
    27	170.837	85
    28	176.575	85
    29	165.818	85
    30	168.655	85
    31	171.45	85
    32	162.214	85
    33	169.179	85
    34	169.573	85
    35	169.176	85
    36	164.792	85
    37	178.577	85
    38	168.736	85
    39	169.292	85
    40	170.322	85
    41	165.955	85
    42	170.9	85
    43	175.771	85
    44	175.12	85
    45	167.117	85
    46	163.65	85
    47	169.53	85
    48	163.635	85
    49	173.352	85
    50	173.107	85
    51	172.137	85
    52	175.213	85
    53	166.654	85
    54	170.885	85
    55	174.63	85
    56	170.212	85
    57	160.852	85
    58	160.181	85
    59	170.034	85
    60	166.251	85
    61	165.276	85
    62	171.023	85
    63	160.294	85
    64	170.93	85
    65	163.141	85
    66	164.021	85
    67	166.276	85
    68	163.025	85
    69	178.378	85
    70	167.15	85
    71	172.345	85
    72	168.296	85
    73	165.061	85
    74	171.926	85
    75	160.504	85
    76	169.843	85
    77	170.601	85
    78	161.176	85
    79	175.821	85
    80	165.737	85
    81	175.605	85
    82	170.836	85
    83	162.507	85
    84	164.697	85
    85	161.712	85
    86	174.531	85
    87	175.667	85
    88	168.697	85
    89	172.605	85
    90	169.023	85
    91	171.841	85
    92	160.873	85
    93	162.105	85
    94	169.893	85
    95	166.155	85
    96	174.722	85
    97	166.127	85
    98	171.441	85
    99	161.334	85
   100	160.172	85

Measurement: rn4
  step	-v(ntc)/i(v3)	at
     1	44.4873	150
     2	41.6764	150
     3	42.616	150
     4	43.71	150
     5	44.2084	150
     6	41.8232	150
     7	45.0708	150
     8	44.6213	150
     9	44.8249	150
    10	46.9307	150
    11	40.8114	150
    12	44.9047	150
    13	42.6583	150
    14	44.7865	150
    15	42.9079	150
    16	42.1821	150
    17	41.3272	150
    18	44.9225	150
    19	45.2417	150
    20	42.529	150
    21	44.1488	150
    22	46.8726	150
    23	44.841	150
    24	46.1099	150
    25	44.9216	150
    26	43.0004	150
    27	45.0474	150
    28	46.6488	150
    29	43.5574	150
    30	43.8169	150
    31	44.4172	150
    32	42.4758	150
    33	44.6006	150
    34	44.3097	150
    35	43.7435	150
    36	42.5261	150
    37	47.2724	150
    38	44.4838	150
    39	44.1152	150
    40	44.6937	150
    41	43.766	150
    42	45.2016	150
    43	46.4043	150
    44	46.3638	150
    45	44.0901	150
    46	42.9987	150
    47	44.3988	150
    48	42.9992	150
    49	45.0641	150
    50	45.2429	150
    51	45.2344	150
    52	45.7608	150
    53	43.2434	150
    54	44.8175	150
    55	45.6815	150
    56	44.6866	150
    57	41.7942	150
    58	41.736	150
    59	44.0489	150
    60	43.9889	150
    61	43.0386	150
    62	44.2497	150
    63	41.5243	150
    64	45.0338	150
    65	42.3378	150
    66	42.4882	150
    67	42.9243	150
    68	42.9127	150
    69	47.1796	150
    70	43.7936	150
    71	45.1974	150
    72	44.3214	150
    73	42.719	150
    74	45.3972	150
    75	41.7969	150
    76	44.0598	150
    77	44.2862	150
    78	42.0937	150
    79	45.8348	150
    80	43.7472	150
    81	45.9979	150
    82	44.2372	150
    83	42.6093	150
    84	43.3659	150
    85	41.9766	150
    86	45.4447	150
    87	45.8923	150
    88	44.6713	150
    89	45.664	150
    90	43.9712	150
    91	45.3051	150
    92	41.629	150
    93	42.6399	150
    94	43.9626	150
    95	43.3724	150
    96	46.1394	150
    97	43.4268	150
    98	44.9112	150
    99	42.3581	150
   100	41.6929	150

Measurement: rp1
  step	-v(pts)/i(v2)	at
     1	781.092	-55
     2	784.213	-55
     3	784.26	-55
     4	780.049	-55
     5	780.316	-55
     6	782.315	-55
     7	785.872	-55
     8	787.234	-55
     9	783.654	-55
    10	783.257	-55
    11	780.82	-55
    12	781.131	-55
    13	781.834	-55
    14	782.648	-55
    15	782.934	-55
    16	785.421	-55
    17	781.247	-55
    18	783.257	-55
    19	786.224	-55
    20	780.312	-55
    21	783.89	-55
    22	784.147	-55
    23	783.99	-55
    24	782.758	-55
    25	781.988	-55
    26	782.888	-55
    27	783.104	-55
    28	785.388	-55
    29	782.397	-55
    30	782.498	-55
    31	780.459	-55
    32	780.131	-55
    33	785.214	-55
    34	783.215	-55
    35	782.323	-55
    36	780.997	-55
    37	781.822	-55
    38	784.16	-55
    39	784.263	-55
    40	786.328	-55
    41	782.729	-55
    42	784.564	-55
    43	784.835	-55
    44	785.168	-55
    45	786.081	-55
    46	782.942	-55
    47	779.334	-55
    48	781.88	-55
    49	783.517	-55
    50	784.184	-55
    51	785.715	-55
    52	781.331	-55
    53	782.286	-55
    54	782.725	-55
    55	781.746	-55
    56	784.363	-55
    57	785.943	-55
    58	785.842	-55
    59	782.956	-55
    60	779.243	-55
    61	782.158	-55
    62	785.982	-55
    63	782.069	-55
    64	780.808	-55
    65	780.591	-55
    66	786.349	-55
    67	783.49	-55
    68	779.233	-55
    69	783.895	-55
    70	779.101	-55
    71	786.8	-55
    72	779.876	-55
    73	782.532	-55
    74	782.772	-55
    75	781.358	-55
    76	782.986	-55
    77	784.152	-55
    78	782.57	-55
    79	783.403	-55
    80	784.052	-55
    81	782.051	-55
    82	782.425	-55
    83	781.624	-55
    84	784.449	-55
    85	782.068	-55
    86	784.576	-55
    87	782.125	-55
    88	783.73	-55
    89	783.277	-55
    90	780.246	-55
    91	783.722	-55
    92	786.986	-55
    93	783.297	-55
    94	781.646	-55
    95	782.238	-55
    96	783.519	-55
    97	780.769	-55
    98	783.114	-55
    99	782.299	-55
   100	783.138	-55

Measurement: rp2
  step	-v(pts)/i(v2)	at
     1	997.671	0
     2	999.308	0
     3	1001	0
     4	998.356	0
     5	997.707	0
     6	998.445	0
     7	1001.34	0
     8	1002.15	0
     9	1001.71	0
    10	1000.53	0
    11	999.428	0
    12	998.959	0
    13	999.94	0
    14	1001.16	0
    15	1000.35	0
    16	1000.09	0
    17	999.972	0
    18	998.33	0
    19	1002.2	0
    20	998.563	0
    21	1001.1	0
    22	1001.05	0
    23	1000.09	0
    24	1000.24	0
    25	999.805	0
    26	998.585	0
    27	997.794	0
    28	1001.62	0
    29	998.181	0
    30	998.323	0
    31	998.851	0
    32	998.653	0
    33	1001.19	0
    34	1000.93	0
    35	1000.61	0
    36	998.556	0
    37	998.123	0
    38	1001.86	0
    39	1000.61	0
    40	1001.67	0
    41	998.53	0
    42	1000.5	0
    43	1001.14	0
    44	1000.37	0
    45	1000.8	0
    46	998.175	0
    47	998.038	0
    48	999.584	0
    49	1001.13	0
    50	999.073	0
    51	1000.52	0
    52	998.157	0
    53	1000.77	0
    54	1000.05	0
    55	997.693	0
    56	1001.17	0
    57	1002.15	0
    58	1002.13	0
    59	998.283	0
    60	997.734	0
    61	998.458	0
    62	1001.43	0
    63	998.345	0
    64	997.976	0
    65	999.126	0
    66	1001.86	0
    67	998.737	0
    68	997.918	0
    69	1001.85	0
    70	997.886	0
    71	1002.1	0
    72	998.881	0
    73	1000.41	0
    74	997.699	0
    75	998.708	0
    76	1001.68	0
    77	1000.15	0
    78	997.811	0
    79	1002.11	0
    80	999.036	0
    81	998.794	0
    82	998.041	0
    83	998.653	0
    84	999.125	0
    85	998.385	0
    86	1000.69	0
    87	998.373	0
    88	1000.38	0
    89	1001.4	0
    90	998.593	0
    91	999.735	0
    92	1002.12	0
    93	1000.36	0
    94	998.886	0
    95	999.511	0
    96	999.324	0
    97	998.604	0
    98	998.178	0
    99	1000.89	0
   100	999.106	0

Measurement: rp3
  step	-v(pts)/i(v2)	at
     1	1326.17	85
     2	1329.92	85
     3	1329.09	85
     4	1324.26	85
     5	1325.01	85
     6	1327.57	85
     7	1331.3	85
     8	1332.88	85
     9	1327.82	85
    10	1327.86	85
    11	1324.84	85
    12	1325.55	85
    13	1326.06	85
    14	1326.62	85
    15	1327.48	85
    16	1331.29	85
    17	1325.18	85
    18	1329.03	85
    19	1331.36	85
    20	1324.54	85
    21	1328.49	85
    22	1328.9	85
    23	1329.18	85
    24	1327.27	85
    25	1326.36	85
    26	1328.34	85
    27	1329.09	85
    28	1330.43	85
    29	1327.83	85
    30	1327.91	85
    31	1324.61	85
    32	1324.23	85
    33	1330.4	85
    34	1327.58	85
    35	1326.43	85
    36	1325.56	85
    37	1327.01	85
    38	1328.49	85
    39	1329.3	85
    40	1331.79	85
    41	1328.14	85
    42	1329.81	85
    43	1329.87	85
    44	1330.77	85
    45	1331.9	85
    46	1328.64	85
    47	1323.38	85
    48	1326.32	85
    49	1327.92	85
    50	1330	85
    51	1331.5	85
    52	1326.27	85
    53	1326.29	85
    54	1327.32	85
    55	1327.13	85
    56	1329.15	85
    57	1330.97	85
    58	1330.83	85
    59	1328.61	85
    60	1323.4	85
    61	1327.33	85
    62	1331.41	85
    63	1327.26	85
    64	1325.59	85
    65	1324.66	85
    66	1331.72	85
    67	1329.16	85
    68	1323.29	85
    69	1328.1	85
    70	1323.11	85
    71	1332.27	85
    72	1323.73	85
    73	1326.85	85
    74	1328.65	85
    75	1326.01	85
    76	1326.85	85
    77	1329.38	85
    78	1328.29	85
    79	1327.23	85
    80	1329.83	85
    81	1326.99	85
    82	1327.95	85
    83	1326.44	85
    84	1330.37	85
    85	1327.24	85
    86	1329.72	85
    87	1327.33	85
    88	1328.64	85
    89	1327.43	85
    90	1324.43	85
    91	1328.97	85
    92	1332.53	85
    93	1328.01	85
    94	1326.35	85
    95	1326.89	85
    96	1328.89	85
    97	1325.2	85
    98	1328.9	85
    99	1326.25	85
   100	1328.44	85

Measurement: rp4
  step	-v(pts)/i(v2)	at
     1	1571.74	150
     2	1577.02	150
     3	1574.35	150
     4	1567.93	150
     5	1569.69	150
     6	1573.59	150
     7	1577.92	150
     8	1580.07	150
     9	1571.63	150
    10	1572.55	150
    11	1568.14	150
    12	1569.71	150
    13	1569.89	150
    14	1569.97	150
    15	1572.03	150
    16	1578.83	150
    17	1568.33	150
    18	1576.19	150
    19	1577.4	150
    20	1568.27	150
    21	1573.24	150
    22	1573.98	150
    23	1575.16	150
    24	1571.76	150
    25	1570.51	150
    26	1574.82	150
    27	1576.68	150
    28	1576.22	150
    29	1574.24	150
    30	1574.26	150
    31	1568.17	150
    32	1567.65	150
    33	1576.48	150
    34	1571.79	150
    35	1570.03	150
    36	1570.03	150
    37	1572.86	150
    38	1572.68	150
    39	1575	150
    40	1578.53	150
    41	1574.51	150
    42	1575.95	150
    43	1575.59	150
    44	1577.72	150
    45	1579.35	150
    46	1575.64	150
    47	1566.63	150
    48	1570.6	150
    49	1572.24	150
    50	1577.34	150
    51	1578.86	150
    52	1571.54	150
    53	1569.67	150
    54	1571.98	150
    55	1573.37	150
    56	1574.33	150
    57	1576.77	150
    58	1576.54	150
    59	1575.5	150
    60	1566.9	150
    61	1573.17	150
    62	1578.05	150
    63	1573.13	150
    64	1570.51	150
    65	1568.05	150
    66	1578.28	150
    67	1576.12	150
    68	1566.57	150
    69	1572.02	150
    70	1566.28	150
    71	1579.04	150
    72	1566.62	150
    73	1570.9	150
    74	1575.99	150
    75	1570.7	150
    76	1569.97	150
    77	1575.47	150
    78	1575.29	150
    79	1570.32	150
    80	1577.06	150
    81	1572.34	150
    82	1574.54	150
    83	1571.48	150
    84	1577.93	150
    85	1573.05	150
    86	1575.67	150
    87	1573.22	150
    88	1574.02	150
    89	1571.18	150
    90	1568.05	150
    91	1575.06	150
    92	1579.49	150
    93	1572.94	150
    94	1571.15	150
    95	1571.63	150
    96	1575.22	150
    97	1569.37	150
    98	1576.07	150
    99	1569.51	150
   100	1574.61	150

Measurement: b
  step	-ln(rn2/rn3)/(1/358.15-1/298.15)
     1	3168.69
     2	3192.71
     3	3161.36
     4	3138.55
     5	3176.76
     6	3176.78
     7	3184.34
     8	3153.18
     9	3201.65
    10	3139.77
    11	3196.51
    12	3184.33
    13	3198.44
    14	3176.87
    15	3189.16
    16	3179.93
    17	3198.46
    18	3142.72
    19	3175.17
    20	3170.2
    21	3186.18
    22	3140.49
    23	3196.68
    24	3158.35
    25	3174.23
    26	3194.7
    27	3150.56
    28	3146.08
    29	3159.58
    30	3185.64
    31	3192.32
    32	3167.07
    33	3151.06
    34	3172.03
    35	3196.9
    36	3201.54
    37	3141.34
    38	3151.06
    39	3178.5
    40	3162.04
    41	3150.23
    42	3143.36
    43	3147.72
    44	3141
    45	3149.28
    46	3158.98
    47	3166.68
    48	3158.74
    49	3184.23
    50	3171.52
    51	3158.68
    52	3173.21
    53	3188.56
    54	3163.32
    55	3169.43
    56	3160.9
    57	3185.38
    58	3178.78
    59	3192.41
    60	3142.44
    61	3180.17
    62	3195.36
    63	3192.48
    64	3152.56
    65	3188.22
    66	3192.57
    67	3200.7
    68	3154.66
    69	3143.34
    70	3165.7
    71	3163.48
    72	3153.54
    73	3194.7
    74	3147.29
    75	3180.1
    76	3189.15
    77	3187.57
    78	3173.25
    79	3177.57
    80	3148.14
    81	3166.27
    82	3193.45
    83	3163.91
    84	3153.96
    85	3187.69
    86	3180.38
    87	3172.54
    88	3140.58
    89	3142.76
    90	3182.47
    91	3150.91
    92	3195.05
    93	3156.36
    94	3195.07
    95	3174.43
    96	3147.09
    97	3171.08
    98	3166.06
    99	3160.77
   100	3181.1


Date: Tue Oct 19 11:58:19 2021
Total elapsed time: 12.244 seconds.

tnom = 27
temp = 151
method = Gear
totiter = 439
traniter = 0
tranpoints = 0
accept = 0
rejected = 0
matrix size = 28
fillins = 4
solver = Normal
Matrix Compiler1:      59 opcodes  0.3/[0.1]/0.2
Matrix Compiler2: 1.76 KB object code size  0.1/0.3/[0.1]

