Circuit: * C:\HOME_projects\SYNTH_GOOM\2LineartoExponential\Draft1.asc

Limiting rise time of source v5 to 0.1
Limiting fall time of source v5 to 0.1
Limiting rise time of source v2 to 0.1
Limiting fall time of source v2 to 0.1
Limiting rise time of source v4 to 0.1
Limiting fall time of source v4 to 0.1
Limiting rise time of source v1 to 0.1
Limiting fall time of source v1 to 0.1
Direct Newton iteration for .op point succeeded.

Date: Tue Apr 23 22:04:58 2024
Total elapsed time: 0.160 seconds.

tnom = 27
temp = 27
method = modified trap
totiter = 4607
traniter = 4574
tranpoints = 1739
accept = 1553
rejected = 186
matrix size = 33
fillins = 6
solver = Normal
Matrix Compiler1: 1.87 KB object code size  0.3/0.2/[0.2]
Matrix Compiler2: off  [0.2]/0.4/0.4

