Circuit: * C:\HOME_projects\SYNTH_GOOM\2LineartoExponential\Draft2.asc

Limiting rise time of source v1 to 4.16667e-005
Limiting fall time of source v1 to 4.16667e-005
WARNING: Less than two connections to node VOUT.  This node is used by V1.
.OP point found by inspection.

Date: Wed Aug 27 14:27:23 2025
Total elapsed time: 1.045 seconds.

tnom = 27
temp = 27
method = modified trap
totiter = 888022
traniter = 888022
tranpoints = 444012
accept = 360013
rejected = 83999
matrix size = 2
fillins = 0
solver = Normal
Matrix Compiler1: off  [0.0]/0.0/0.0
Matrix Compiler2: off  [0.0]/0.1/0.0

