Circuit: * C:\HOME_projects\SYNTH_GOOM\2LineartoExponential\input_trim_main.asc

WARNING: Less than two connections to node VPITCH_ERROR.  This node is used by B1.
WARNING: Less than two connections to node VCC.  This node is used by V4.
.step temp=10°C
Direct Newton iteration failed to find .op point.  (Use ".option noopiter" to skip.)
Starting Gmin stepping
Gmin = 10
Gmin = 1.07374
Gmin = 0.115292
Gmin = 0.0123794
Gmin = 0.00132923
Gmin = 0.000142725
vernier = 0.5
Gmin = 2.39452e-005
vernier = 0.25
vernier = 0.333333
Gmin = 1.39088e-005
vernier = 0.444444
vernier = 0.592592
Gmin = 5.0636e-006
vernier = 0.790123
Gmin = 1.03047e-006
vernier = 1
Gmin = 1.15494e-007
Gmin = 1.24011e-008
Gmin = 1.33156e-009
Gmin = 1.42975e-010
Gmin = 1.53518e-011
Gmin = 1.64839e-012
Gmin = 1.76994e-013
Gmin = 0
Gmin stepping succeeded in finding the operating point.

Semiconductor Device Operating Points:
                        --- Diodes ---
Name:  d:u1:e_n:2  d:u1:e_n:1  d:u1:i_np:2  d:u1:i_np:1  d:u1:i_nn:2
Model: u1:e_n:dvn  u1:e_n:dvn  u1:i_np:dvnf u1:i_np:dvnf u1:i_nn:dvnf
Id:      1.00e-02    1.00e-02    1.00e-02     1.00e-02     1.00e-02
Vd:      8.54e-01    8.54e-01    8.54e-01     8.54e-01     8.54e-01
Req:     2.44e+00    2.44e+00    2.44e+00     2.44e+00     2.44e+00
CAP:     0.00e+00    0.00e+00    0.00e+00     0.00e+00     0.00e+00

Name:  d:u1:i_nn:1
Model: u1:i_nn:dvnf
Id:      1.00e-02
Vd:      8.54e-01
Req:     2.44e+00
CAP:     0.00e+00


.step temp=25°C
.step temp=45°C


Measurement: vtrimavg
  step	AVG(v(vpitch_trim)/v(vpitch))	FROM	TO
     1	-0.0167649	0.5	5
     2	-0.0178484	0.5	5
     3	-0.0190272	0.5	5


Date: Sat Oct 21 19:40:41 2023
Total elapsed time: 6.250 seconds.

tnom = 27
temp = 45
method = trap
totiter = 1223
traniter = 0
tranpoints = 0
accept = 0
rejected = 0
matrix size = 169
fillins = 153
solver = Normal
Thread vector: 20.1/8.8[3] 0.0/0.0[0] 6.1/3.8[3] 0.8/1.6[1]  2592/500
Matrix Compiler1: 16.50 KB object code size
Matrix Compiler2: 15.88 KB object code size  2.2/3.1/[1.1]

