Circuit: * C:\HOME_projects\SYNTH_GOOM\2LineartoExponential\main_VCA_trim_and_linexp_.asc

Limiting fall time of source v1 to 0.01
Direct Newton iteration for .op point succeeded.

Date: Mon May 13 11:15:56 2024
Total elapsed time: 0.655 seconds.

tnom = 27
temp = 27
method = modified trap
totiter = 15202
traniter = 15193
tranpoints = 4136
accept = 3158
rejected = 978
matrix size = 265
fillins = 319
solver = Normal
Thread vector: 27.0/11.1[6] 4.8/3.3[6] 7.0/3.6[6] 1.3/3.0[1]  2592/500
Matrix Compiler1: 31.29 KB object code size  11.8/5.7/[1.8]
Matrix Compiler2: 27.74 KB object code size  4.8/4.8/[1.9]

