Circuit: * C:\HOME_projects\SYNTH_GOOM\2LineartoExponential\main_SAW_to_TRIAN_LM358.asc

Limiting fall time of source v2 to 8.67362e-019
WARNING: Less than two connections to node VTRIANGLE_OUT.  This node is used by R10.
WARNING: Less than two connections to node VSAW_OUT.  This node is used by R11.
Direct Newton iteration failed to find .op point.  (Use ".option noopiter" to skip.)
Starting Gmin stepping
Gmin = 10
vernier = 0.5
vernier = 0.666667
Gmin = 3.4946
vernier = 0.888888
vernier = 1
Gmin = 0.528136
Gmin = 0.0567082
Gmin = 0.006089
vernier = 0.5
Gmin = 0.00102156
vernier = 0.25
vernier = 0.125
vernier = 0.0625
vernier = 0.03125
Gmin = 0.00099805
vernier = 0.015625
vernier = 0.0078125
vernier = 0.00390625
vernier = 0.00195313
Gmin = 0.00100047
vernier = 0.000976563
vernier = 0.000488281
Gmin = 0
Gmin stepping succeeded in finding the operating point.

Heightened Def Con from 0.00454545 +++++++++++++++++++++++++++++++to 0.00454546
Heightened Def Con from 0.00454546 to 0.00454547
Heightened Def Con from 0.00909091 +++++++++++++++++++++++++++++++to 0.00909092
Heightened Def Con from 0.00909092 to 0.00909093

Date: Sat Mar 30 10:26:08 2024
Total elapsed time: 3.567 seconds.

tnom = 27
temp = 27
method = modified trap
totiter = 18087
traniter = 16442
tranpoints = 3559
accept = 2478
rejected = 1147
matrix size = 508
fillins = 702
solver = Normal
Thread vector: 30.1/19.5[8] 16.4/9.0[8] 24.4/8.1[8] 2.2/4.1[1]  2592/500
Matrix Compiler1: 66.61 KB object code size  40.4/19.7/[7.1]
Matrix Compiler2: 54.49 KB object code size  19.5/21.8/[4.1]

