Circuit: * C:\HOME_projects\SYNTH_GOOM\2LineartoExponential\main_LPF_Ladder.asc

WARNING: Node VOUT is floating.

WARNING: Less than two connections to node SIGNALWAVE.  This node is used by V3.
WARNING: Less than two connections to node CV_CUT_OFF.  This node is used by V2.
WARNING: Less than two connections to node VOUT.  This node is used by C7.
Direct Newton iteration failed to find .op point.  (Use ".option noopiter" to skip.)
Starting Gmin stepping
Gmin = 10
Gmin = 1.07374
Gmin = 0.115292
Gmin = 0.0123794
Gmin = 0.00132923
Gmin = 0.000142725
vernier = 0.5
vernier = 0.25
vernier = 0.125
Gmin = 7.87341e-005
vernier = 0.166667
Gmin = 5.44922e-005
vernier = 0.222222
vernier = 0.296296
Gmin = 2.96013e-005
vernier = 0.395061
vernier = 0.526748
Gmin = 1.13857e-005
vernier = 0.702331
Gmin = 2.62988e-006
vernier = 0.936441
vernier = 1
Gmin = 3.0491e-007
vernier = 0.5
vernier = 0.25
vernier = 0.125
vernier = 0.0625
vernier = 0.03125
vernier = 0.015625
vernier = 0.0078125
vernier = 0.00390625
vernier = 0.00195313
Gmin = 3.0491e-007
vernier = 0.000976563
vernier = 0.000488281
Gmin = 0
Gmin stepping failed

Starting source stepping with srcstepmethod=0
Source Step = 3.0303%
Source Step = 33.3333%
Source Step = 63.6364%
Source Step = 88.6364%
vernier = 0.0625
Source Step = 87.8995%
Source Step = 87.9291%
Source Step = 87.9587%
Source Step = 87.9883%
Source Step = 88.0179%
vernier = 0.00146484
Source Step = 88.0489%
Source Step = 88.0933%
Source Step = 88.1377%
Source Step = 88.1821%
Source Step = 88.2265%
Source Step = 88.2709%
vernier = 0.00219727
Source Step = 88.3375%
Source Step = 88.4041%
Source Step = 88.4706%
Source Step = 88.5372%
Source Step = 88.6038%
vernier = 0.0032959
Source Step = 88.7004%
Source Step = 88.8002%
Source Step = 88.9001%
Source Step = 89%
Source Step = 89.0999%
vernier = 0.00494385
Source Step = 89.2397%
Source Step = 89.3895%
Source Step = 89.5393%
Source Step = 89.6891%
Source Step = 89.8389%
vernier = 0.00741577
Source Step = 90.0412%
Source Step = 90.1423%
Starting source stepping with srcstepmethod=1
Source Step = 3.0303%
Source Step = 33.3333%
Source Step = 63.6364%
Source Step = 88.6364%
vernier = 0.0625
Source stepping failed

Pseudo Transient succeeded in finding the operating point at 389.273 ms.
.step cutf_val=10
.step cutf_val=20
.step cutf_val=30
.step cutf_val=40
.step cutf_val=50
.step cutf_val=60
.step cutf_val=70
.step cutf_val=80
.step cutf_val=90

Date: Wed Aug 27 15:05:07 2025
Total elapsed time: 126.889 seconds.

tnom = 27
temp = 27
method = trap
totiter = 978
traniter = 0
tranpoints = 0
accept = 0
rejected = 0
matrix size = 965
fillins = 1217
solver = Normal
Matrix Compiler1:    6747 opcodes
Matrix Compiler2: 100.51 KB object code size  16.4/19.0/[9.1]

