Circuit: * C:\HOME_projects\SYNTH_GOOM\2LineartoExponential\main_SAW_to_TRIAN.asc

Limiting fall time of source v2 to 8.67362e-019
WARNING: Less than two connections to node VTRIANGLE_OUT.  This node is used by R10.
WARNING: Less than two connections to node VSAW_OUT.  This node is used by R11.
Direct Newton iteration failed to find .op point.  (Use ".option noopiter" to skip.)
Starting Gmin stepping
Gmin = 10
vernier = 0.5
vernier = 0.666667
Gmin = 3.4946
vernier = 0.888888
vernier = 1
Gmin = 0.528136
Gmin = 0.0567082
Gmin = 0.006089
vernier = 0.5
Gmin = 0.00102156
vernier = 0.25
vernier = 0.125
vernier = 0.0625
vernier = 0.03125
Gmin = 0.00099805
vernier = 0.015625
vernier = 0.0078125
vernier = 0.00390625
vernier = 0.00195313
Gmin = 0.00100047
vernier = 0.000976563
vernier = 0.000488281
Gmin = 0
Gmin stepping failed

Starting source stepping with srcstepmethod=0
Source Step = 3.0303%
vernier = 0.25
Source Step = 1.70455%
Source Step = 3.59848%
Source Step = 5.49242%
Source Step = 7.38636%
Source Step = 8.33925%
Source Step = 8.36884%
Source Step = 8.39844%
Source Step = 8.42803%
Source Step = 8.45762%
Source Step = 8.48722%
vernier = 0.00146484
Source Step = 8.53013%
Source Step = 8.57451%
Source Step = 8.6189%
Source Step = 8.66329%
Source Step = 8.70768%
vernier = 0.00219727
Source Step = 8.76983%
Source Step = 8.83641%
Source Step = 8.90299%
Source Step = 8.96958%
Source Step = 9.03616%
vernier = 0.0032959
Source Step = 9.12605%
Source Step = 9.22593%
Source Step = 9.3258%
Source Step = 9.42568%
Source Step = 9.52555%
vernier = 0.00494385
Source Step = 9.65539%
Source Step = 9.80521%
Source Step = 9.95502%
Source Step = 10.1048%
Source Step = 10.2546%
vernier = 0.00741577
Source Step = 10.4419%
Source Step = 10.6666%
Source Step = 10.8914%
Source Step = 11.1161%
Source Step = 11.3408%
vernier = 0.0111237
Source Step = 11.6105%
Source Step = 11.9475%
Source Step = 12.2846%
Source Step = 12.6217%
Source Step = 12.9588%
vernier = 0.0166855
Source Step = 13.3464%
Source Step = 13.852%
Source Step = 14.3577%
Source Step = 14.8633%
Source Step = 15.3689%
vernier = 0.0250282
Source Step = 15.9251%
Source Step = 16.6835%
Source Step = 17.442%
Source Step = 18.2004%
Source Step = 18.9588%
vernier = 0.0375423
Source Step = 19.7552%
Source Step = 20.8928%
Source Step = 22.0305%
Source Step = 23.1681%
Source Step = 24.3058%
Source Step = 25.4434%
vernier = 0.0563135
Source Step = 27.1499%
Source Step = 28.8563%
Source Step = 30.5628%
Source Step = 32.2693%
Source Step = 33.9758%
vernier = 0.0844703
Source Step = 36.4501%
Source Step = 39.0098%
Source Step = 41.5695%
Source Step = 44.1292%
Source Step = 46.689%
vernier = 0.126705
Source Step = 50.2725%
Source Step = 54.1121%
Source Step = 57.9517%
Source Step = 61.7912%
Source Step = 65.6308%
vernier = 0.190058
Source Step = 70.8142%
Source Step = 76.5735%
Source Step = 82.3328%
Source Step = 83.3767%
vernier = 0.00296966
Starting source stepping with srcstepmethod=1
Source Step = 3.0303%
vernier = 0.25
Source Step = 0.0828598%
Source Step = 0.201231%
Source Step = 0.319602%
Source Step = 0.437973%
Source Step = 0.556345%
vernier = 0.00585938
Source Step = 0.710227%
Source Step = 0.887784%
Source Step = 1.06534%
Source Step = 1.2429%
Source Step = 1.42045%
vernier = 0.00878906
Source Step = 1.6424%
Source Step = 1.90874%
Source Step = 2.17507%
Source Step = 2.44141%
Source Step = 2.70774%
vernier = 0.0131836
Source Step = 3.02734%
Source Step = 3.42685%
Source Step = 3.82635%
Source Step = 4.22585%
Source Step = 4.62536%
vernier = 0.0197754
Source Step = 5.08478%
Source Step = 5.68404%
Source Step = 6.28329%
Source Step = 6.88255%
Source Step = 7.4818%
vernier = 0.0296631
Source Step = 8.14098%
Source Step = 9.03986%
Source Step = 9.93874%
Source Step = 10.8376%
Source Step = 11.7365%
vernier = 0.0444946
Source Step = 12.6803%
Source Step = 14.0287%
Source Step = 15.377%
Source Step = 16.7253%
Source Step = 18.0736%
Source Step = 19.4219%
vernier = 0.0667419
Source Step = 21.4444%
Source Step = 23.4669%
Source Step = 25.4894%
Source Step = 27.5119%
Source Step = 29.5344%
vernier = 0.100113
Source Step = 32.467%
Source Step = 35.5007%
Source Step = 38.5344%
Source Step = 41.5681%
Source Step = 44.6019%
vernier = 0.150169
Source Step = 48.8491%
Source Step = 53.3997%
Source Step = 57.9502%
Source Step = 62.5008%
Source Step = 67.0514%
vernier = 0.225254
Source Step = 73.1947%
Source Step = 80.0206%
Source Step = 86.8465%
Source Step = 90.4407%
vernier = 0.000879899
Source stepping failed

Pseudo Transient succeeded in finding the operating point at 268.448 ms.

Date: Sun Apr 07 02:45:00 2024
Total elapsed time: 19.219 seconds.

tnom = 27
temp = 27
method = modified trap
totiter = 23089
traniter = 9312
tranpoints = 2919
accept = 2405
rejected = 543
matrix size = 508
fillins = 879
solver = Normal
Thread vector: 44.4/20.1[8] 13.6/7.9[8] 26.9/16.9[8] 3.2/4.8[1]  2592/500
Matrix Compiler1: 76.92 KB object code size  45.8/20.3/[9.7]
Matrix Compiler2: 57.87 KB object code size  19.2/22.7/[6.4]

