Circuit: * C:\HOME_projects\SYNTH_GOOM\2LineartoExponential\main_SAW_to_SQUARE.asc

Limiting fall time of source v1 to 8.67362e-019
WARNING: Less than two connections to node VNEG.  This node is used by V6.
WARNING: Less than two connections to node VPOS.  This node is used by V7.
WARNING: Less than two connections to node VPULSE.  This node is used by R3.
Direct Newton iteration failed to find .op point.  (Use ".option noopiter" to skip.)
Starting Gmin stepping
Gmin = 10
vernier = 0.5
vernier = 0.666667
Gmin = 3.4946
vernier = 0.888888
vernier = 1
Gmin = 0.528136
Gmin = 0.0567082
Gmin = 0.006089
vernier = 0.5
Gmin = 0.00126119
vernier = 0.25
vernier = 0.125
vernier = 0.0625
vernier = 0.03125
Gmin = 0.00129461
vernier = 0.015625
vernier = 0.0078125
vernier = 0.00390625
vernier = 0.00520833
Gmin = 0.00128495
vernier = 0.00694444
Gmin = 0.00126505
vernier = 0.00925925
vernier = 0.0123457
Gmin = 0.00123234
vernier = 0.0164609
vernier = 0.0219478
Gmin = 0.00118195
vernier = 0.0292638
Gmin = 0.00110687
vernier = 0.0390184
vernier = 0.0520245
Gmin = 0.000991641
vernier = 0.0693659
vernier = 0.0924879
Gmin = 0.000832674
vernier = 0.123317
Gmin = 0.000633352
vernier = 0.164423
vernier = 0.21923
Gmin = 0.000401775
vernier = 0.292307
vernier = 0.389743
Gmin = 0.000196378
vernier = 0.519657
Gmin = 6.50585e-005
vernier = 0.692876
vernier = 0.923834
Gmin = 1.08657e-005
vernier = 0.461917
vernier = 0.230959
vernier = 0.115479
vernier = 0.0577396
vernier = 0.0288698
vernier = 0.0144349
vernier = 0.00721745
vernier = 0.00360873
Gmin = 1.08657e-005
vernier = 0.00180436
vernier = 0.000902182
vernier = 0.000451091
Gmin = 0
Gmin stepping failed

Starting source stepping with srcstepmethod=0
Source Step = 3.0303%
vernier = 0.25
Source Step = 1.70455%
Source Step = 3.59848%
Source Step = 5.49242%
Source Step = 7.38636%
Source Step = 9.2803%
vernier = 0.09375
Source Step = 11.9318%
Source Step = 14.7727%
Source Step = 17.6136%
Source Step = 20.4545%
Source Step = 23.2955%
vernier = 0.140625
Source Step = 27.1307%
Source Step = 31.392%
Source Step = 35.6534%
Source Step = 39.9148%
Source Step = 44.1761%
vernier = 0.210938
Source Step = 49.7159%
Source Step = 56.108%
Source Step = 62.5%
Source Step = 68.892%
Source Step = 75.2841%
vernier = 0.316406
Source Step = 83.2741%
Source Step = 92.8622%
Source stepping succeeded in finding the operating point.

Heightened Def Con from 0.00237752 to 0.00237752

Date: Mon Jan 01 21:14:42 2024
Total elapsed time: 7.429 seconds.

tnom = 27
temp = 27
method = modified trap
totiter = 431068
traniter = 427152
tranpoints = 92144
accept = 69154
rejected = 22991
matrix size = 133
fillins = 206
solver = Normal
Thread vector: 8.9/6.2[3] 1.6/1.8[1] 2.9/3.2[1] 0.7/1.3[1]  2592/500
Matrix Compiler1: 17.72 KB object code size  4.0/1.7/[1.1]
Matrix Compiler2: 14.29 KB object code size  1.6/2.4/[0.7]

