Circuit: * C:\HOME_projects\SYNTH_GOOM\2LineartoExponential\main_VCO_SAW.asc

WARNING: Less than two connections to node VSAW_OUT_INV.  This node is used by R6.
WARNING: Less than two connections to node VSAW_OUT.  This node is used by R9.
Direct Newton iteration failed to find .op point.  (Use ".option noopiter" to skip.)
Starting Gmin stepping
Gmin = 10
vernier = 0.5
vernier = 0.666667
Gmin = 3.4946
vernier = 0.888888
vernier = 0.444444
Gmin = 0.976318
vernier = 0.222222
vernier = 0.111111
vernier = 0.0555555
vernier = 0.0277778
Gmin = 1.00663
vernier = 0.0138889
vernier = 0.00694444
vernier = 0.00347222
Gmin = 0.999677
vernier = 0.00173611
vernier = 0.000868055
vernier = 0.000434028
Gmin = 0
Gmin stepping failed

Starting source stepping with srcstepmethod=0
Source Step = 3.0303%
vernier = 0.25
Source Step = 0.520833%
Source Step = 0.994318%
Source Step = 1.4678%
Source Step = 1.94129%
Source Step = 2.41477%
vernier = 0.0234375
Source Step = 3.0303%
Source Step = 3.74053%
Source Step = 4.45076%
Source Step = 5.16098%
Source Step = 5.87121%
vernier = 0.0351563
Source Step = 6.759%
Source Step = 7.82434%
Source Step = 8.88968%
Source Step = 9.95502%
Source Step = 11.0204%
vernier = 0.0527344
Source Step = 12.2988%
Source Step = 13.8968%
Source Step = 15.4948%
Source Step = 17.0928%
Source Step = 18.6908%
vernier = 0.0791016
Source Step = 20.5285%
Source Step = 22.9255%
Source Step = 25.3226%
Source Step = 27.7196%
Source Step = 30.1166%
vernier = 0.118652
Source Step = 32.7533%
Source Step = 36.3488%
Source Step = 39.9444%
Source Step = 43.5399%
Source Step = 47.1354%
vernier = 0.177979
Source Step = 50.9107%
Source Step = 52.3939%
Source Step = 52.731%
Source Step = 53.068%
Source Step = 53.4051%
Source Step = 53.7422%
vernier = 0.0166855
Source Step = 54.1298%
Source Step = 54.6355%
Source Step = 55.1411%
Source Step = 55.6467%
Source Step = 56.1523%
vernier = 0.0250282
Source Step = 56.7085%
Source Step = 57.4669%
Source Step = 58.2254%
Source Step = 58.9838%
Source Step = 59.7422%
vernier = 0.0375423
Source Step = 60.5386%
Source Step = 61.6762%
Source Step = 62.8139%
Source Step = 63.9515%
Source Step = 65.0892%
Source Step = 66.2268%
vernier = 0.0563135
Source Step = 67.9333%
Source Step = 69.6398%
Source Step = 71.3462%
Source Step = 73.0527%
Source Step = 74.7592%
vernier = 0.0844703
Source Step = 77.2335%
Source Step = 79.7933%
Source Step = 82.353%
vernier = 0.0211176
Source Step = 82.369%
Source Step = 82.409%
Source Step = 82.4489%
Source Step = 82.4889%
Source Step = 82.5289%
vernier = 0.00197977
Source Step = 82.5749%
Source Step = 82.6349%
Source Step = 82.6949%
Source Step = 82.7549%
Source Step = 82.8149%
vernier = 0.00296966
Source Step = 82.8809%
Source Step = 82.9709%
Source Step = 83.0609%
Source Step = 83.1509%
Source Step = 83.2409%
vernier = 0.00445449
Source Step = 83.3353%
Source Step = 83.4703%
Source Step = 83.5817%
Source Step = 83.6154%
Starting source stepping with srcstepmethod=1
Source Step = 3.0303%
Source stepping failed

Pseudo Transient succeeded in finding the operating point at 389.211 ms.
Changing Tseed to 9.76562e-008
Changing Tseed to 9.76562e-010

Date: Fri Apr 26 22:53:13 2024
Total elapsed time: 621.969 seconds.

tnom = 27
temp = 27
method = modified trap
totiter = 3491488
traniter = 3478672
tranpoints = 1739230
accept = 1739204
rejected = 104
matrix size = 507
fillins = 1581
solver = Normal
Thread vector: 35.9/17.7[8] 15.2/5.3[8] 26.2/6.3[8] 2.6/3.9[1]  2592/500
Matrix Compiler1: 158.22 KB object code size  58.9/40.4/[15.7]
Matrix Compiler2: 68.29 KB object code size  19.4/22.1/[3.8]

