Circuit: * C:\HOME_projects\SYNTH_GOOM\2LineartoExponential\main_trim_and_linexp_fix.asc

WARNING: Less than two connections to node VCC.  This node is used by V8.
.step temp=10°C
Direct Newton iteration failed to find .op point.  (Use ".option noopiter" to skip.)
Starting Gmin stepping
Gmin = 10
Gmin = 1.07374
Gmin = 0.115292
Gmin = 0.0123794
Gmin = 0.00132923
Gmin = 0.000142725
vernier = 0.5
Gmin = 2.66058e-005
vernier = 0.25
vernier = 0.125
Gmin = 2.14698e-005
vernier = 0.166667
vernier = 0.222222
Gmin = 1.35373e-005
vernier = 0.296296
vernier = 0.395061
Gmin = 6.55471e-006
vernier = 0.526748
Gmin = 2.1408e-006
vernier = 0.702331
vernier = 0.936441
Gmin = 3.49656e-007
vernier = 1
Gmin = 3.8517e-008
Gmin = 4.13573e-009
Gmin = 4.44071e-010
Gmin = 4.76818e-011
Gmin = 5.11979e-012
Gmin = 5.49733e-013
Gmin = 0
Gmin stepping succeeded in finding the operating point.

Semiconductor Device Operating Points:
                        --- Diodes ---
Name:  d:u2:e_n:2  d:u2:e_n:1  d:u2:i_np:2  d:u2:i_np:1  d:u2:i_nn:2
Model: u2:e_n:dvn  u2:e_n:dvn  u2:i_np:dvnf u2:i_np:dvnf u2:i_nn:dvnf
Id:      1.00e-02    1.00e-02    1.00e-02     1.00e-02     1.00e-02
Vd:      8.54e-01    8.54e-01    8.54e-01     8.54e-01     8.54e-01
Req:     2.44e+00    2.44e+00    2.44e+00     2.44e+00     2.44e+00
CAP:     0.00e+00    0.00e+00    0.00e+00     0.00e+00     0.00e+00

Name:  d:u2:i_nn:1
Model: u2:i_nn:dvnf
Id:      1.00e-02
Vd:      8.54e-01
Req:     2.44e+00
CAP:     0.00e+00


.step temp=25°C
.step temp=45°C

Date: Sun Feb 11 16:02:42 2024
Total elapsed time: 4.898 seconds.

tnom = 27
temp = 45
method = trap
totiter = 727
traniter = 0
tranpoints = 0
accept = 0
rejected = 0
matrix size = 153
fillins = 150
solver = Normal
Thread vector: 14.0/9.0[3] 0.0/0.0[0] 5.9/4.1[3] 1.1/1.7[1]  2592/500
Matrix Compiler1: 16.04 KB object code size
Matrix Compiler2: 14.92 KB object code size  4.2/2.8/[1.7]

