Circuit: * C:\HOME_projects\SYNTH_GOOM\2LineartoExponential\main_VCA_exp_log.asc

Direct Newton iteration for .op point succeeded.
Heightened Def Con from 1.24787 to 1.24787

Date: Tue May 14 01:07:03 2024
Total elapsed time: 19.887 seconds.

tnom = 27
temp = 27
method = modified trap
totiter = 589041
traniter = 589032
tranpoints = 143671
accept = 106208
rejected = 37464
matrix size = 265
fillins = 313
solver = Normal
Thread vector: 17.0/9.3[6] 7.7/3.7[6] 10.1/3.7[6] 1.3/3.3[1]  2592/500
Matrix Compiler1: 30.98 KB object code size  13.0/8.8/[2.8]
Matrix Compiler2: 27.64 KB object code size  4.9/8.7/[1.4]

