Circuit: * C:\HOME_projects\SYNTH_GOOM\2LineartoExponential\main_VCO.asc

Direct Newton iteration failed to find .op point.  (Use ".option noopiter" to skip.)
Starting Gmin stepping
Gmin = 10
vernier = 0.5
vernier = 0.666667
Gmin = 3.4946
vernier = 0.888888
vernier = 0.444444
Gmin = 0.976318
vernier = 0.222222
vernier = 0.111111
vernier = 0.0555555
vernier = 0.0277778
Gmin = 1.00663
vernier = 0.0138889
vernier = 0.00694444
vernier = 0.00347222
Gmin = 0.999677
vernier = 0.00173611
vernier = 0.000868055
vernier = 0.000434028
Gmin = 0
Gmin stepping failed

Starting source stepping with srcstepmethod=0
Source Step = 3.0303%
vernier = 0.25
Source Step = 1.70455%
Source Step = 3.59848%
Source Step = 5.49242%
Source Step = 7.38636%
Source Step = 9.2803%
vernier = 0.09375
Source Step = 11.9318%
Source Step = 14.7727%
Source Step = 17.6136%
Source Step = 20.4545%
Source Step = 23.2955%
vernier = 0.140625
Source Step = 27.1307%
Source Step = 31.392%
Source Step = 35.6534%
Source Step = 39.9148%
Source Step = 44.1761%
vernier = 0.210938
Source Step = 49.7159%
Source Step = 56.108%
Source Step = 62.5%
Source Step = 68.892%
Source Step = 75.2841%
vernier = 0.316406
Source Step = 83.2741%
Source Step = 90.0457%
vernier = 0.00494385
Source Step = 90.0195%
Starting source stepping with srcstepmethod=1
Source Step = 3.0303%
Source stepping failed

Pseudo Transient succeeded in finding the operating point at 318.92 ms.
Changing Tseed to 3.90625e-008

Date: Sun Dec 10 10:55:13 2023
Total elapsed time: 80.166 seconds.

tnom = 27
temp = 27
method = modified trap
totiter = 1407987
traniter = 1398690
tranpoints = 697775
accept = 697189
rejected = 613
matrix size = 262
fillins = 431
solver = Normal
Thread vector: 20.9/11.2[5] 2.5/4.8[1] 8.8/5.3[5] 1.0/4.5[1]  2592/500
Matrix Compiler1: 33.21 KB object code size  6.8/3.1/[1.5]
Matrix Compiler2: 27.46 KB object code size  4.0/5.0/[2.3]

