Circuit: * C:\MY_GIT_REP\analog_synth\simulations\main_ADSR.asc

Limiting fall time of source v2 to 0.1
WARNING: Node NC_01 is floating.

WARNING: Less than two connections to node NC_01.  This node is used by C2.
Direct Newton iteration for .op point succeeded.

Date: Sun Oct 19 13:40:50 2025
Total elapsed time: 0.177 seconds.

tnom = 27
temp = 27
method = modified trap
totiter = 5134
traniter = 5098
tranpoints = 1998
accept = 1748
rejected = 250
matrix size = 82
fillins = 76
solver = Normal
Matrix Compiler1: 9.45 KB object code size  1.5/0.8/[0.5]
Matrix Compiler2: 8.51 KB object code size  0.7/1.2/[0.5]

