Circuit: * C:\HOME_projects\SYNTH_GOOM\2LineartoExponential\main_VCO_SAW_just_for_testing.asc

Direct Newton iteration failed to find .op point.  (Use ".option noopiter" to skip.)
Starting Gmin stepping
Gmin = 10
Gmin = 1.07374
vernier = 0.5
vernier = 0.25
vernier = 0.125
vernier = 0.0625
Gmin = 0.995033
vernier = 0.03125
vernier = 0.015625
vernier = 0.0078125
vernier = 0.00390625
Gmin = 0.999816
vernier = 0.00195313
vernier = 0.000976563
vernier = 0.000488281
Gmin = 0
Gmin stepping failed

Starting source stepping with srcstepmethod=0
Source Step = 3.0303%
Source Step = 33.3333%
Source Step = 63.6364%
Source Step = 88.6364%
vernier = 0.0625
Source Step = 87.8995%
Starting source stepping with srcstepmethod=1
Source Step = 3.0303%
Source Step = 33.3333%
Source Step = 63.6364%
Source Step = 88.6364%
vernier = 0.0625
Source stepping failed

Pseudo Transient succeeded in finding the operating point at 279.041 ms.
Changing Tseed to 3.90625e-008
Heightened Def Con from 0.0182513 to 0.0182513
Heightened Def Con from 0.0182513 to 0.0182513
Heightened Def Con from 0.0182513 to 0.0182513
Heightened Def Con from 0.0182515 to 0.0182515
Heightened Def Con from 0.0182515 ++to 0.0182515
Heightened Def Con from 0.0365608 to 0.0365608
Heightened Def Con from 0.0365608 to 0.0365608
Heightened Def Con from 0.036561 ++to 0.036561
Heightened Def Con from 0.036561 ++++++++++++++++++++++++++++++to 0.036561

Date: Sun Mar 24 14:10:45 2024
Total elapsed time: 142.886 seconds.

tnom = 27
temp = 27
method = modified trap
totiter = 2582399
traniter = 2574760
tranpoints = 1212362
accept = 1042970
rejected = 169451
matrix size = 270
fillins = 424
solver = Normal
Thread vector: 23.1/11.4[5] 3.2/2.4[5] 14.6/4.5[5] 1.1/3.1[1]  2592/500
Matrix Compiler1: 31.46 KB object code size  9.7/4.4/[2.3]
Matrix Compiler2: 27.88 KB object code size  10.1/5.6/[2.1]

