Circuit: * C:\HOME_projects\SYNTH_GOOM\2LineartoExponential\main_VCA_exp.asc

WARNING: Less than two connections to node CV_IN_NOTUSED.  This node is used by V1.
Direct Newton iteration failed to find .op point.  (Use ".option noopiter" to skip.)
Starting Gmin stepping
Gmin = 10
vernier = 0.5
vernier = 0.666667
Gmin = 3.4946
vernier = 0.888888
vernier = 1
Gmin = 0.528136
Gmin = 0.0567082
Gmin = 0.006089
Gmin = 0.000653801
vernier = 0.5
vernier = 0.25
vernier = 0.125
Gmin = 0.000360669
vernier = 0.166667
Gmin = 0.000249621
vernier = 0.222222
vernier = 0.111111
vernier = 0.0555555
vernier = 0.0277778
vernier = 0.0138889
Gmin = 0.000239547
vernier = 0.0185185
Gmin = 0.000230056
vernier = 0.0246913
vernier = 0.0329218
Gmin = 0.000215334
vernier = 0.0438957
vernier = 0.0585276
Gmin = 0.000193948
vernier = 0.0780367
Gmin = 0.000163752
vernier = 0.104049
vernier = 0.138732
Gmin = 0.000124297
vernier = 0.184976
vernier = 0.246634
Gmin = 8.05851e-005
vernier = 0.328846
Gmin = 4.02504e-005
vernier = 0.438461
vernier = 0.584614
Gmin = 1.32341e-005
vernier = 0.779486
vernier = 1
Gmin = 2.41618e-006
vernier = 0.5
vernier = 0.25
vernier = 0.125
vernier = 0.0625
vernier = 0.03125
vernier = 0.015625
vernier = 0.0078125
Gmin = 1.54636e-006
vernier = 0.00390625
vernier = 0.00195313
vernier = 0.000976563
vernier = 0.000488281
vernier = 0.000651042
Gmin = 1.54516e-006
vernier = 0.000868055
Gmin = 1.54223e-006
vernier = 0.00115741
vernier = 0.00154321
Gmin = 1.53744e-006
vernier = 0.00205761
vernier = 0.00274348
Gmin = 1.52988e-006
vernier = 0.00365797
Gmin = 1.51769e-006
vernier = 0.00182899
vernier = 0.000914493
vernier = 0.000457247
Gmin = 0
Gmin stepping failed

Starting source stepping with srcstepmethod=0
Source Step = 3.0303%
vernier = 0.25
Source Step = 1.70455%
Source Step = 3.59848%
Source Step = 5.49242%
Source Step = 7.38636%
Source Step = 8.33925%
Source Step = 8.36884%
Source Step = 8.39844%
Source Step = 8.42803%
Source Step = 8.45762%
Source Step = 8.48722%
vernier = 0.00146484
Source Step = 8.52717%
Source Step = 8.57156%
Source Step = 8.61594%
Source Step = 8.66033%
Source Step = 8.70472%
vernier = 0.00219727
Source Step = 8.76243%
Source Step = 8.82901%
Source Step = 8.8956%
Source Step = 8.96218%
Source Step = 9.02876%
vernier = 0.0032959
Source Step = 9.11199%
Source Step = 9.21187%
Source Step = 9.31175%
Source Step = 9.41162%
Source Step = 9.5115%
vernier = 0.00494385
Source Step = 9.63135%
Source Step = 9.78116%
Source Step = 9.93097%
Source Step = 10.0808%
Source Step = 10.2306%
vernier = 0.00741577
Source Step = 10.4029%
Source Step = 10.6276%
Source Step = 10.8523%
Source Step = 11.077%
Source Step = 11.3018%
vernier = 0.0111237
Source Step = 11.549%
Source Step = 11.886%
Source Step = 12.2231%
Source Step = 12.5602%
Source Step = 12.8973%
vernier = 0.0166855
Source Step = 13.2512%
Source Step = 13.7568%
Source Step = 14.2625%
Source Step = 14.7681%
Source Step = 15.2737%
Source Step = 15.7793%
vernier = 0.0250282
Source Step = 16.5378%
Source Step = 17.2962%
Source Step = 18.0546%
Source Step = 18.813%
Source Step = 19.5715%
vernier = 0.0375423
Source Step = 20.6712%
Source Step = 21.8088%
Source Step = 22.9465%
Source Step = 24.0841%
Source Step = 25.2218%
vernier = 0.0563135
Source Step = 26.8145%
Source Step = 28.521%
Source Step = 30.2274%
Source Step = 31.9339%
Source Step = 33.6404%
vernier = 0.0844703
Source Step = 35.9441%
Source Step = 38.5038%
Source Step = 41.0635%
Source Step = 43.6232%
Source Step = 46.1829%
vernier = 0.126705
Source Step = 49.5105%
Source Step = 53.3501%
Source Step = 57.1897%
Source Step = 61.0292%
Source Step = 64.8688%
vernier = 0.190058
Source Step = 69.6682%
Source Step = 75.4276%
Source Step = 81.1869%
Source Step = 83.3107%
Source Step = 83.6706%
Source Step = 84.0306%
Source Step = 84.3905%
Source Step = 84.7505%
vernier = 0.0178179
Source Step = 85.1464%
Source Step = 85.6864%
Source Step = 86.2263%
Source Step = 86.7663%
Source Step = 87.3062%
vernier = 0.0267269
Source Step = 87.8731%
Source Step = 88.683%
Source Step = 89.4929%
Source Step = 90.3029%
Source Step = 91.1128%
Source Step = 91.9227%
vernier = 0.0400904
Source Step = 93.1375%
Source Step = 94.3524%
Source Step = 95.5672%
Source Step = 96.7821%
Source Step = 97.997%
vernier = 0.0601356
Source Step = 99.7585%
Source stepping succeeded in finding the operating point.


Date: Sat Jul 27 13:44:09 2024
Total elapsed time: 10.643 seconds.

tnom = 27
temp = 27
method = modified trap
totiter = 196270
traniter = 188697
tranpoints = 46090
accept = 33980
rejected = 12110
matrix size = 270
fillins = 412
solver = Normal
Thread vector: 19.1/14.2[6] 9.7/4.8[6] 14.9/9.2[6] 1.4/3.2[1]  2592/500
Matrix Compiler1: 35.86 KB object code size  20.3/10.3/[3.8]
Matrix Compiler2: 29.52 KB object code size  7.0/11.1/[1.8]

